** 964/993 All-Carbon Monocoque - F1 topology screening only
** NOT A ROAD/TRACK/FABRICATION RELEASE
*NODE
1, 0.000000, 702.500000, 180.000000
2, 0.000000, 702.500000, 650.000000
3, 0.000000, -702.500000, 180.000000
4, 0.000000, -702.500000, 650.000000
5, 430.000000, 650.000000, 180.000000
6, 430.000000, 650.000000, 650.000000
7, 430.000000, -650.000000, 180.000000
8, 430.000000, -650.000000, 650.000000
9, 1840.000000, 650.000000, 180.000000
10, 1840.000000, 650.000000, 650.000000
11, 1840.000000, -650.000000, 180.000000
12, 1840.000000, -650.000000, 650.000000
13, 2272.000000, 722.000000, 180.000000
14, 2272.000000, 722.000000, 650.000000
15, 2272.000000, -722.000000, 180.000000
16, 2272.000000, -722.000000, 650.000000
17, 430.000000, 507.000000, 1240.000000
18, 430.000000, -507.000000, 1240.000000
19, 1840.000000, 507.000000, 1240.000000
20, 1840.000000, -507.000000, 1240.000000
** ... 8 like lines cut
*ELEMENT, TYPE=T3D2, ELSET=ALL_MEMBERS
1, 1, 3
2, 2, 4
3, 1, 2
4, 3, 4
5, 1, 4
6, 3, 2
7, 5, 7
8, 6, 8
9, 5, 6
10, 7, 8
11, 5, 8
12, 7, 6
13, 9, 11
14, 10, 12
15, 9, 10
16, 11, 12
17, 9, 12
18, 11, 10
19, 13, 15
20, 14, 16
** ... 110 like lines cut
*ELSET, ELSET=SECTION_1
37, 38, 39, 40, 53, 54, 55, 56, 69, 70, 71, 72
*SOLID SECTION, ELSET=SECTION_1, MATERIAL=CARBON_EQUIVALENT
85.000000000
*ELSET, ELSET=SECTION_2
35, 36, 51, 52, 67, 68
*SOLID SECTION, ELSET=SECTION_2, MATERIAL=CARBON_EQUIVALENT
135.000000000
*ELSET, ELSET=SECTION_3
96, 97, 99, 100, 102, 103, 105, 106, 108, 109, 111, 112
114, 115, 117, 118, 121, 122, 125, 126, 129, 130
*SOLID SECTION, ELSET=SECTION_3, MATERIAL=CARBON_EQUIVALENT
145.000000000
*ELSET, ELSET=SECTION_4
33, 34, 49, 50, 65, 66
*SOLID SECTION, ELSET=SECTION_4, MATERIAL=CARBON_EQUIVALENT
165.000000000
*ELSET, ELSET=SECTION_5
27, 28, 31, 32, 43, 44, 47, 48, 59, 60, 63, 64
*SOLID SECTION, ELSET=SECTION_5, MATERIAL=CARBON_EQUIVALENT
190.000000000
*ELSET, ELSET=SECTION_6
5, 6, 11, 12, 17, 18, 23, 24
*SOLID SECTION, ELSET=SECTION_6, MATERIAL=CARBON_EQUIVALENT
200.000000000
*ELSET, ELSET=SECTION_7
3, 4, 9, 10, 15, 16, 21, 22
*SOLID SECTION, ELSET=SECTION_7, MATERIAL=CARBON_EQUIVALENT
215.000000000
*ELSET, ELSET=SECTION_8
2, 8, 14, 20
*SOLID SECTION, ELSET=SECTION_8, MATERIAL=CARBON_EQUIVALENT
285.000000000
*ELSET, ELSET=SECTION_9
1, 7, 13, 19
*SOLID SECTION, ELSET=SECTION_9, MATERIAL=CARBON_EQUIVALENT
290.000000000
*ELSET, ELSET=SECTION_10
95, 98, 101, 104, 107, 110, 113, 116, 119, 120, 123, 124
127, 128
*SOLID SECTION, ELSET=SECTION_10, MATERIAL=CARBON_EQUIVALENT
305.000000000
*ELSET, ELSET=SECTION_11
25, 29, 41, 45, 57, 61
*SOLID SECTION, ELSET=SECTION_11, MATERIAL=CARBON_EQUIVALENT
470.000000000
*ELSET, ELSET=SECTION_12
26, 30, 42, 46, 58, 62
*SOLID SECTION, ELSET=SECTION_12, MATERIAL=CARBON_EQUIVALENT
640.000000000
*ELSET, ELSET=SECTION_13
76, 77, 81, 82, 85, 86, 87, 88, 89, 90
*SOLID SECTION, ELSET=SECTION_13, MATERIAL=CARBON_EQUIVALENT
750.000000000
*ELSET, ELSET=SECTION_14
75, 80
*SOLID SECTION, ELSET=SECTION_14, MATERIAL=CARBON_EQUIVALENT
1300.000000000
*ELSET, ELSET=SECTION_15
73, 74, 78, 79
*SOLID SECTION, ELSET=SECTION_15, MATERIAL=CARBON_EQUIVALENT
1450.000000000
*ELSET, ELSET=SECTION_16
83, 84, 91, 92, 93, 94
*SOLID SECTION, ELSET=SECTION_16, MATERIAL=CARBON_EQUIVALENT
1500.000000000
*MATERIAL, NAME=CARBON_EQUIVALENT
*ELASTIC
18000.000000, 0.300000
*DENSITY
1.550000000000e-09
*NSET, NSET=REAR_FIXED
13, 15, 14, 16, 27, 28
*NSET, NSET=FRONT_READ
1, 3
*STEP
*STATIC
*BOUNDARY
REAR_FIXED, 1, 3
*CLOAD
1, 3, 5000.000000
3, 3, -5000.000000
*NODE PRINT, NSET=FRONT_READ
U
*EL PRINT, ELSET=ALL_MEMBERS
S, E
*END STEP
